&
0.4-mb
1xCO2
20CRv3-WRF
2xCO2
4-km
All-Hist
A&M
Amer.
AmeriFlux
AMIP-type
ammc
and/or
Arakawa-Schubert
Argo
babj
BCC-CSM2-MR
b-pinene
Bull.
CAM7's
CAM-chem
C-band
CD-ROM
cell/pixel-registration
Celsius
Centre
(CMIP)-class
CMIP-class
CMORization
CMORize
CMORized
CMORizer
CONUS-wide
CrIS
CRUNCEPv7
CSIRO-Mk3-6-0
cwao
CY31r1
CY31r2
CY38r1
CY41r2
DATSAV
dBZ
DE-AC02-05CH11231
DE-AC05-00OR22725
degreeC
Dines
Dr.
EarthScope
ecmf
e.g.
egrr
EOLE
facto
Fahrenheit
Fluxnet
GCM/Mixed-layer
Geo
GEOS-Chem
GPM_3IMERGDF
GPM_3IMERGHH
grid/node-registration
GridRad
GridRad.org
GridRad-Severe
Guan_Waliser_v2
HadISD.1.0.0.2011f
HadISD.1.0.0.2012p
HadISST1
HadISST.2
Hadley-OI
HadSST2
HCl
hectopascal
hectopascals
hoc
hydro-climate
hydro-climatic
Hydro-Climatic
i.e.
IIb
IIc
IIIb
Inc.
Inter-American
iPOGS
IPSL-CM5B-LR
IPSL-CM6A-LR
IR-based
JPL-Oceans-8902
JRA-3Q-COBE
Kelvin
k-fold
Ku-2000
Ku-2001
kwbc
latitude/longitude
lfpw
lig127ka
LITTLE_R
macro-perturbation
macro-perturbations
MAM4-VBS
meso-beta
MeteoFrance
Meteor.
metgrid.exe
METH-GPROF-adjusted
micro-perturbation
micro-perturbations
millibar
millibars
Minisatellite
mm/day
mm/hour
Mr.
Multi-satellitE
Mundhenk/Nardi
MWprecipitation
NaOH
(NAS)-funded
NAS-funded
Navy-NOAA
NCAR-USGS
NCEP-NCAR
NetCDF
NetCDF-4
Nina-like
NO3
NOAA-1
NOAA-11
NOAA-14
NOAA-15
NOAA-7
NOAA-9
NOAA-CIRES-DOE
Noah-MP
NorESM1
NOx
NSCAT-1
NSCAT-2
(NSF)-funded
NSF-funded
obs-nudging
OldWeather3
OldWeather.org
Organisation
past2k
pb2nc
PERSIANN-CDR
PFT-level
pH
PhD
piControl
PI-CTRL
PlusRCP85
priori
r1i1p1f1
r6i1p1
README
rjtd
rksl
run001
run002
run003
run004
run005
run006
run007
run008
run009
same/next-day
sbsj
sc_PDSI_pm
Seasat
SeaWinds
Shields/Kiehl
sigma-t
Soc.
SPHEREPACK
SSP2-4.5
SSP5-34-OS
SSP5-8.5
SSP5-85
T-3
TC-permitting
TDF-11
TECA_BARD_v1.0
TerrainBase
t_mean
Tonga-Hunga
Tonga–Hunga
u-
UADB-TRH
UADB-Wind
u-component
Unidata
USArray
v-
v-component
Vol.
vs.
WindSat
WRF-Lake
x
xarray
Xarray
Zarr
